Version 4
SHEET 1 1460 680
WIRE -192 -560 -464 -560
WIRE 160 -560 -112 -560
WIRE 240 -560 160 -560
WIRE 560 -560 304 -560
WIRE 720 -560 560 -560
WIRE 720 -544 720 -560
WIRE 560 -528 560 -560
WIRE -464 -432 -464 -560
WIRE 160 -304 160 -560
WIRE -192 -256 -336 -256
WIRE 96 -256 -112 -256
WIRE -336 -224 -336 -256
WIRE 96 -224 96 -256
WIRE 112 -160 112 -192
WIRE 160 -160 160 -208
WIRE 160 -160 112 -160
WIRE 160 -16 160 -160
FLAG -336 -144 0
FLAG 160 -16 0
FLAG -464 -352 0
FLAG 560 -464 0
FLAG 720 -464 0
SYMBOL voltage -336 -240 R0
WINDOW 123 0 0 Left 2
WINDOW 39 0 0 Left 2
SYMATTR InstName V2
SYMATTR Value PULSE(-3 6 0 2N 2N 10u 20u)
SYMBOL res -96 -272 R90
WINDOW 0 0 56 VBottom 2
WINDOW 3 32 56 VTop 2
SYMATTR InstName R2
SYMATTR Value 30
SYMBOL GaN_E-HEMT_LT_GS66508B_L1V2 112 -256 R0
SYMATTR InstName U1
SYMBOL voltage -464 -448 R0
WINDOW 123 0 0 Left 2
WINDOW 39 0 0 Left 2
SYMATTR InstName V1
SYMATTR Value 200
SYMBOL diode 240 -544 R270
WINDOW 0 32 32 VTop 2
WINDOW 3 0 32 VBottom 2
SYMATTR InstName D1
SYMBOL cap 544 -528 R0
SYMATTR InstName C1
SYMATTR Value 4.7µ
SYMBOL res 704 -560 R0
SYMATTR InstName R1
SYMATTR Value 400
SYMBOL ind -208 -544 R270
WINDOW 0 32 56 VTop 2
WINDOW 3 5 56 VBottom 2
SYMATTR InstName L1
SYMATTR Value 1mH
TEXT 264 40 Left 2 !.include GaN_LTspice_GS66508B_L1V2.lib
TEXT -370 60 Left 2 !.tran 5m
TEXT -360 -48 Left 2 !.option temp=85; Set Tj
